final year project/energy function/My_Work/NE/ieee39buscls.seq
0, 33           / PSS(R)E Xplore-33.5    TUE, MAR 17 2015  23:01
    30,'1 ', 0.00000E+00, 2.50000E-02, 2.50000E-02, 2.50000E-02, 0.00000E+00, 2.50000E-02, 0.00000E+00, 2.50000E-02,1, 0.00000E+00, 0.00000E+00
    31,'1 ', 0.00000E+00, 5.00000E-02, 5.00000E-02, 5.00000E-02, 0.00000E+00, 5.00000E-02, 0.00000E+00, 5.00000E-02,1, 0.00000E+00, 0.00000E+00
    32,'1 ', 0.00000E+00, 4.50000E-02, 4.50000E-02, 4.50000E-02, 0.00000E+00, 4.50000E-02, 0.00000E+00, 4.50000E-02,1, 0.00000E+00, 0.00000E+00
    33,'1 ', 0.00000E+00, 3.50000E-02, 3.50000E-02, 3.50000E-02, 0.00000E+00, 3.50000E-02, 0.00000E+00, 3.50000E-02,1, 0.00000E+00, 0.00000E+00
    34,'1 ', 0.00000E+00, 8.90000E-02, 8.90000E-02, 8.90000E-02, 0.00000E+00, 8.90000E-02, 0.00000E+00, 8.90000E-02,1, 0.00000E+00, 0.00000E+00
    35,'1 ', 0.00000E+00, 4.00000E-02, 4.00000E-02, 4.00000E-02, 0.00000E+00, 4.00000E-02, 0.00000E+00, 4.00000E-02,1, 0.00000E+00, 0.00000E+00
    36,'1 ', 0.00000E+00, 4.40000E-02, 4.40000E-02, 4.40000E-02, 0.00000E+00, 4.40000E-02, 0.00000E+00, 4.40000E-02,1, 0.00000E+00, 0.00000E+00
    37,'1 ', 0.00000E+00, 4.50000E-02, 4.50000E-02, 4.50000E-02, 0.00000E+00, 4.50000E-02, 0.00000E+00, 4.50000E-02,1, 0.00000E+00, 0.00000E+00
    38,'1 ', 0.00000E+00, 4.50000E-02, 4.50000E-02, 4.50000E-02, 0.00000E+00, 4.50000E-02, 0.00000E+00, 4.50000E-02,1, 0.00000E+00, 0.00000E+00
    39,'1 ', 0.00000E+00, 4.00000E-03, 4.00000E-03, 4.00000E-03, 0.00000E+00, 4.00000E-03, 0.00000E+00, 4.00000E-03,1, 0.00000E+00, 0.00000E+00
0  / END OF MACHINE IMPEDANCE DATA, BEGIN LOAD DATA
0  / END OF LOAD DATA, BEGIN ZERO SEQ. NON-TRANSFORMER BRANCH DATA
0  / END OF ZERO SEQ. NON-TRANSFORMER BRANCH DATA, BEGIN ZERO SEQ. MUTUAL DATA
0  / END OF ZERO SEQ. MUTUAL DATA, BEGIN ZERO SEQ. TRANSFORMER DATA
     2,    30,     0,'1 ',1,1,  4, 0.00000E+0, 0.00000E+0, 0.00000E+0, 0.00000E+0, 0.00000E+0, 0.00000E+0, 0.00000E+0, 0.00000E+0, 0.00000E+0, 0.00000E+0
     6,    31,     0,'1 ',1,1,  4, 0.00000E+0, 0.00000E+0, 0.00000E+0, 0.00000E+0, 0.00000E+0, 0.00000E+0, 0.00000E+0, 0.00000E+0, 0.00000E+0, 0.00000E+0
    10,    32,     0,'1 ',1,1,  4, 0.00000E+0, 0.00000E+0, 0.00000E+0, 0.00000E+0, 0.00000E+0, 0.00000E+0, 0.00000E+0, 0.00000E+0, 0.00000E+0, 0.00000E+0
    12,    11,     0,'1 ',1,1,  4, 0.00000E+0, 0.00000E+0, 0.00000E+0, 0.00000E+0, 0.00000E+0, 0.00000E+0, 0.00000E+0, 0.00000E+0, 0.00000E+0, 0.00000E+0
    12,    13,     0,'1 ',1,1,  4, 0.00000E+0, 0.00000E+0, 0.00000E+0, 0.00000E+0, 0.00000E+0, 0.00000E+0, 0.00000E+0, 0.00000E+0, 0.00000E+0, 0.00000E+0
    19,    20,     0,'1 ',1,1,  4, 0.00000E+0, 0.00000E+0, 0.00000E+0, 0.00000E+0, 0.00000E+0, 0.00000E+0, 0.00000E+0, 0.00000E+0, 0.00000E+0, 0.00000E+0
    19,    33,     0,'1 ',1,1,  4, 0.00000E+0, 0.00000E+0, 0.00000E+0, 0.00000E+0, 0.00000E+0, 0.00000E+0, 0.00000E+0, 0.00000E+0, 0.00000E+0, 0.00000E+0
    20,    34,     0,'1 ',1,1,  4, 0.00000E+0, 0.00000E+0, 0.00000E+0, 0.00000E+0, 0.00000E+0, 0.00000E+0, 0.00000E+0, 0.00000E+0, 0.00000E+0, 0.00000E+0
    22,    35,     0,'1 ',1,1,  4, 0.00000E+0, 0.00000E+0, 0.00000E+0, 0.00000E+0, 0.00000E+0, 0.00000E+0, 0.00000E+0, 0.00000E+0, 0.00000E+0, 0.00000E+0
    23,    36,     0,'1 ',1,1,  4, 0.00000E+0, 0.00000E+0, 0.00000E+0, 0.00000E+0, 0.00000E+0, 0.00000E+0, 0.00000E+0, 0.00000E+0, 0.00000E+0, 0.00000E+0
    25,    37,     0,'1 ',1,1,  4, 0.00000E+0, 0.00000E+0, 0.00000E+0, 0.00000E+0, 0.00000E+0, 0.00000E+0, 0.00000E+0, 0.00000E+0, 0.00000E+0, 0.00000E+0
    29,    38,     0,'1 ',1,1,  4, 0.00000E+0, 0.00000E+0, 0.00000E+0, 0.00000E+0, 0.00000E+0, 0.00000E+0, 0.00000E+0, 0.00000E+0, 0.00000E+0, 0.00000E+0
0  / END OF ZERO SEQ. TRANSFORMER DATA, BEGIN ZERO SEQ. SWITCHED SHUNT DATA
0  / END OF ZERO SEQ. SWITCHED SHUNT DATA, BEGIN ZERO SEQ. FIXED SHUNT DATA
0  / END OF ZERO SEQ. FIXED SHUNT DATA, BEGIN INDUCTION MACHINE DATA
0  / END OF INDUCTION MACHINE DATA
Q
